Circuit: * \\files.auckland.ac.nz\myhome\Documents\GitHub\COMPSYS-301-Robot\hardwaretask1.asc

WARNING: Less than two connections to node VFG2.  This node is used by V2.
Direct Newton iteration for .op point succeeded.

Date: Mon Aug 08 13:25:18 2022
Total elapsed time: 0.090 seconds.

tnom = 27
temp = 27
method = modified trap
totiter = 2681
traniter = 2678
tranpoints = 1340
accept = 1290
rejected = 50
matrix size = 6
fillins = 0
solver = Normal
Matrix Compiler1:       8 opcodes  0.0/[0.0]/0.0
Matrix Compiler2: off  [0.0]/0.0/0.0

