Circuit: * \\files.auckland.ac.nz\myhome\Documents\GitHub\project-project_group_11\draft.asc

Direct Newton iteration for .op point succeeded.

Date: Mon Aug 22 13:00:37 2022
Total elapsed time: 0.324 seconds.

tnom = 27
temp = 27
method = trap
totiter = 17
traniter = 0
tranpoints = 0
accept = 0
rejected = 0
matrix size = 15
fillins = 1
solver = Normal
Matrix Compiler1:      34 opcodes
Matrix Compiler2: 1.14 KB object code size
