Circuit: * C:\Users\digge\OneDrive\Documents\GitHub\project-project_group_11\LtSpicePrototypes\SignalConditioningPrototypes.asc

Direct Newton iteration for .op point succeeded.

Date: Wed Aug 24 09:04:16 2022
Total elapsed time: 0.036 seconds.

tnom = 27
temp = 27
method = trap
totiter = 17
traniter = 0
tranpoints = 0
accept = 0
rejected = 0
matrix size = 39
fillins = 16
solver = Normal
Matrix Compiler1:     149 opcodes
Matrix Compiler2: 3.45 KB object code size
